
  -OEChem-09111916433D

 12 12  0     0  0  0  0  0  0999 V2000
    1.8851   -1.0363   -0.1124 C   0  0  0  0  0  0  0  0  0  0  0  0
    2.9210   -1.6309    0.6081 C   0  0  0  0  0  0  0  0  0  0  0  0
    2.8783   -1.6520    2.0022 C   0  0  0  0  0  0  0  0  0  0  0  0
    1.7997   -1.0786    2.6757 C   0  0  0  0  0  0  0  0  0  0  0  0
    0.7638   -0.4841    1.9551 C   0  0  0  0  0  0  0  0  0  0  0  0
    0.8066   -0.4630    0.5610 C   0  0  0  0  0  0  0  0  0  0  0  0
    1.9174   -1.0203   -1.1978 H   0  0  0  0  0  0  0  0  0  0  0  0
    3.7613   -2.0769    0.0841 H   0  0  0  0  0  0  0  0  0  0  0  0
    3.6848   -2.1150    2.5631 H   0  0  0  0  0  0  0  0  0  0  0  0
    1.7665   -1.0955    3.7614 H   0  0  0  0  0  0  0  0  0  0  0  0
   -0.0760   -0.0377    2.4791 H   0  0  0  0  0  0  0  0  0  0  0  0
    0.0004    0.0003   -0.0003 H   0  0  0  0  0  0  0  0  0  0  0  0
  1  6  2  0  0  0  0
  1  2  1  0  0  0  0
  2  3  2  0  0  0  0
  3  4  1  0  0  0  0
  4  5  2  0  0  0  0
  5  6  1  0  0  0  0
  1  7  1  0  0  0  0
  2  8  1  0  0  0  0
  3  9  1  0  0  0  0
  4 10  1  0  0  0  0
  5 11  1  0  0  0  0
  6 12  1  0  0  0  0
M  END
$$$$

  -OEChem-09111916433D

 46 46  0     0  0  0  0  0  0999 V2000
   -0.7984    0.3971   -2.7362 C   0  0  0  0  0  0  0  0  0  0  0  0
    0.5701    0.4022   -2.0473 C   0  0  0  0  0  0  0  0  0  0  0  0
    1.1838    1.8039   -2.1218 C   0  0  0  0  0  0  0  0  0  0  0  0
    1.4983   -0.6078   -2.7299 C   0  0  0  0  0  0  0  0  0  0  0  0
    0.3632   -0.0593   -0.3229 P   0  0  0  0  0  0  0  0  0  0  0  0
    1.7378   -0.7874    0.0794 N   0  0  0  0  0  0  0  0  0  0  0  0
    1.8324   -1.2792    1.3584 C   0  0  0  0  0  0  0  0  0  0  0  0
    0.8957   -1.6893    2.0360 O   0  0  0  0  0  0  0  0  0  0  0  0
    3.2094   -1.3211    1.9243 C   0  0  0  0  0  0  0  0  0  0  0  0
    3.4182   -1.8018    3.2170 C   0  0  0  0  0  0  0  0  0  0  0  0
    4.7078   -1.8396    3.7472 C   0  0  0  0  0  0  0  0  0  0  0  0
    5.7886   -1.3968    2.9847 C   0  0  0  0  0  0  0  0  0  0  0  0
    5.5798   -0.9161    1.6920 C   0  0  0  0  0  0  0  0  0  0  0  0
    4.2902   -0.8782    1.1619 C   0  0  0  0  0  0  0  0  0  0  0  0
    6.9132   -0.3702    0.7508 Cl  0  0  0  0  0  0  0  0  0  0  0  0
    4.9653   -2.4333    5.3421 Cl  0  0  0  0  0  0  0  0  0  0  0  0
   -0.9505   -1.0734   -0.2664 N   0  0  0  0  0  0  0  0  0  0  0  0
   -0.7647   -2.4786   -0.6398 C   0  0  0  0  0  0  0  0  0  0  0  0
   -1.8294   -1.0130    0.9048 C   0  0  0  0  0  0  0  0  0  0  0  0
    0.1295    1.3392    0.5410 N   0  0  0  0  0  0  0  0  0  0  0  0
    0.3728    1.3190    1.9858 C   0  0  0  0  0  0  0  0  0  0  0  0
   -1.0641    2.1489    0.2827 C   0  0  0  0  0  0  0  0  0  0  0  0
   -1.2507   -0.5996   -2.6912 H   0  0  0  0  0  0  0  0  0  0  0  0
   -1.4874    1.1086   -2.2689 H   0  0  0  0  0  0  0  0  0  0  0  0
   -0.7002    0.6592   -3.7951 H   0  0  0  0  0  0  0  0  0  0  0  0
    2.1639    1.8240   -1.6330 H   0  0  0  0  0  0  0  0  0  0  0  0
    0.5503    2.5323   -1.6042 H   0  0  0  0  0  0  0  0  0  0  0  0
    1.3102    2.1339   -3.1585 H   0  0  0  0  0  0  0  0  0  0  0  0
    2.4823   -0.6164   -2.2486 H   0  0  0  0  0  0  0  0  0  0  0  0
    1.0880   -1.6224   -2.6909 H   0  0  0  0  0  0  0  0  0  0  0  0
    1.6555   -0.3407   -3.7806 H   0  0  0  0  0  0  0  0  0  0  0  0
    2.5729   -2.1456    3.8097 H   0  0  0  0  0  0  0  0  0  0  0  0
    6.7946   -1.4264    3.3984 H   0  0  0  0  0  0  0  0  0  0  0  0
    4.1243   -0.5029    0.1541 H   0  0  0  0  0  0  0  0  0  0  0  0
   -1.7150   -2.9911   -0.5467 H   0  0  0  0  0  0  0  0  0  0  0  0
   -0.0333   -2.9231    0.0252 H   0  0  0  0  0  0  0  0  0  0  0  0
   -0.4136   -2.5245   -1.6641 H   0  0  0  0  0  0  0  0  0  0  0  0
   -2.6278   -1.7346    0.7776 H   0  0  0  0  0  0  0  0  0  0  0  0
   -2.2388   -0.0124    0.9835 H   0  0  0  0  0  0  0  0  0  0  0  0
   -1.2496   -1.2489    1.7896 H   0  0  0  0  0  0  0  0  0  0  0  0
    0.1732    2.3063    2.3858 H   0  0  0  0  0  0  0  0  0  0  0  0
    1.4069    1.0462    2.1627 H   0  0  0  0  0  0  0  0  0  0  0  0
   -0.2877    0.5905    2.4417 H   0  0  0  0  0  0  0  0  0  0  0  0
   -1.0449    3.0144    0.9347 H   0  0  0  0  0  0  0  0  0  0  0  0
   -1.9443    1.5490    0.4837 H   0  0  0  0  0  0  0  0  0  0  0  0
   -1.0564    2.4625   -0.7549 H   0  0  0  0  0  0  0  0  0  0  0  0
  1  2  1  0  0  0  0
  2  3  1  0  0  0  0
  2  4  1  0  0  0  0
  2  5  1  0  0  0  0
  5  6  2  0  0  0  0
  6  7  1  0  0  0  0
  7  8  2  0  0  0  0
  7  9  1  0  0  0  0
  9 14  2  0  0  0  0
  9 10  1  0  0  0  0
 10 11  2  0  0  0  0
 11 12  1  0  0  0  0
 12 13  2  0  0  0  0
 13 14  1  0  0  0  0
 13 15  1  0  0  0  0
 11 16  1  0  0  0  0
  5 17  1  0  0  0  0
 17 18  1  0  0  0  0
 17 19  1  0  0  0  0
  5 20  1  0  0  0  0
 20 21  1  0  0  0  0
 20 22  1  0  0  0  0
  1 23  1  0  0  0  0
  1 24  1  0  0  0  0
  1 25  1  0  0  0  0
  3 26  1  0  0  0  0
  3 27  1  0  0  0  0
  3 28  1  0  0  0  0
  4 29  1  0  0  0  0
  4 30  1  0  0  0  0
  4 31  1  0  0  0  0
 10 32  1  0  0  0  0
 12 33  1  0  0  0  0
 14 34  1  0  0  0  0
 18 35  1  0  0  0  0
 18 36  1  0  0  0  0
 18 37  1  0  0  0  0
 19 38  1  0  0  0  0
 19 39  1  0  0  0  0
 19 40  1  0  0  0  0
 21 41  1  0  0  0  0
 21 42  1  0  0  0  0
 21 43  1  0  0  0  0
 22 44  1  0  0  0  0
 22 45  1  0  0  0  0
 22 46  1  0  0  0  0
M  END
$$$$

  -OEChem-09111916433D

 34 36  0     0  0  0  0  0  0999 V2000
    0.3208    0.2453   -0.0767 C   0  0  0  0  0  0  0  0  0  0  0  0
   -0.9000   -0.5686    0.2286 C   0  0  0  0  0  0  0  0  0  0  0  0
   -2.0397    0.1228    0.6332 C   0  0  0  0  0  0  0  0  0  0  0  0
   -3.1800   -0.6015    0.9223 C   0  0  0  0  0  0  0  0  0  0  0  0
   -3.0421   -2.0721    0.7597 N   0  3  0  0  0  0  0  0  0  0  0  0
   -1.8491   -2.6335    0.3495 C   0  0  0  0  0  0  0  0  0  0  0  0
   -0.7421   -1.9100    0.0706 N   0  0  0  0  0  0  0  0  0  0  0  0
   -1.9205   -4.0023    0.2589 C   0  0  0  0  0  0  0  0  0  0  0  0
   -3.5049   -4.5279    0.6997 S   0  0  0  0  0  0  0  0  0  0  0  0
   -4.0213   -2.9161    0.9896 C   0  0  0  0  0  0  0  0  0  0  0  0
   -5.6608   -2.6162    1.5149 S   0  0  0  0  0  0  0  0  0  0  0  0
   -6.4947   -2.4194   -0.0821 C   0  0  0  0  0  0  0  0  0  0  0  0
   -0.9326   -4.9812   -0.1230 C   0  0  0  0  0  0  0  0  0  0  0  0
   -1.1629   -5.8138   -1.2182 C   0  0  0  0  0  0  0  0  0  0  0  0
   -0.2075   -6.7605   -1.5876 C   0  0  0  0  0  0  0  0  0  0  0  0
    0.9782   -6.8747   -0.8618 C   0  0  0  0  0  0  0  0  0  0  0  0
    1.2084   -6.0421    0.2334 C   0  0  0  0  0  0  0  0  0  0  0  0
    0.2530   -5.0954    0.6028 C   0  0  0  0  0  0  0  0  0  0  0  0
   -4.4027    0.1268    1.3558 C   0  0  0  0  0  0  0  0  0  0  0  0
    0.3270    0.5289   -1.1335 H   0  0  0  0  0  0  0  0  0  0  0  0
    0.3477    1.1539    0.5339 H   0  0  0  0  0  0  0  0  0  0  0  0
    1.2326   -0.3199    0.1437 H   0  0  0  0  0  0  0  0  0  0  0  0
   -2.0306    1.2052    0.7198 H   0  0  0  0  0  0  0  0  0  0  0  0
   -7.5539   -2.2216    0.0828 H   0  0  0  0  0  0  0  0  0  0  0  0
   -6.3829   -3.3337   -0.6650 H   0  0  0  0  0  0  0  0  0  0  0  0
   -6.0488   -1.5855   -0.6240 H   0  0  0  0  0  0  0  0  0  0  0  0
   -2.0821   -5.7371   -1.7942 H   0  0  0  0  0  0  0  0  0  0  0  0
   -0.3866   -7.4089   -2.4404 H   0  0  0  0  0  0  0  0  0  0  0  0
    1.7221   -7.6119   -1.1494 H   0  0  0  0  0  0  0  0  0  0  0  0
    2.1317   -6.1313    0.7984 H   0  0  0  0  0  0  0  0  0  0  0  0
    0.4473   -4.4538    1.4591 H   0  0  0  0  0  0  0  0  0  0  0  0
   -5.0192    0.3960    0.4879 H   0  0  0  0  0  0  0  0  0  0  0  0
   -5.0133   -0.4824    2.0370 H   0  0  0  0  0  0  0  0  0  0  0  0
   -4.1502    1.0485    1.8989 H   0  0  0  0  0  0  0  0  0  0  0  0
  1  2  1  0  0  0  0
  2  7  2  0  0  0  0
  2  3  1  0  0  0  0
  3  4  2  0  0  0  0
  4  5  1  0  0  0  0
  5 10  2  0  0  0  0
  5  6  1  0  0  0  0
  6  7  1  0  0  0  0
  6  8  2  0  0  0  0
  8  9  1  0  0  0  0
  9 10  1  0  0  0  0
 10 11  1  0  0  0  0
 11 12  1  0  0  0  0
  8 13  1  0  0  0  0
 13 18  2  0  0  0  0
 13 14  1  0  0  0  0
 14 15  2  0  0  0  0
 15 16  1  0  0  0  0
 16 17  2  0  0  0  0
 17 18  1  0  0  0  0
  4 19  1  0  0  0  0
  1 20  1  0  0  0  0
  1 21  1  0  0  0  0
  1 22  1  0  0  0  0
  3 23  1  0  0  0  0
 12 24  1  0  0  0  0
 12 25  1  0  0  0  0
 12 26  1  0  0  0  0
 14 27  1  0  0  0  0
 15 28  1  0  0  0  0
 16 29  1  0  0  0  0
 17 30  1  0  0  0  0
 18 31  1  0  0  0  0
 19 32  1  0  0  0  0
 19 33  1  0  0  0  0
 19 34  1  0  0  0  0
M  CHG  1   5   1
M  END
$$$$

  -OEChem-09111916433D

 72 72  0     0  0  0  0  0  0999 V2000
   -2.3296   -3.8472   -0.5970 C   0  0  0  0  0  0  0  0  0  0  0  0
   -2.4342   -2.4153   -0.0947 C   0  0  0  0  0  0  0  0  0  0  0  0
   -1.5411   -1.6041   -0.8364 O   0  0  0  0  0  0  0  0  0  0  0  0
   -1.4899   -0.0315   -0.4638 P   0  0  0  0  0  0  0  0  0  0  0  0
   -1.1937    0.1741    1.0980 N   0  0  0  0  0  0  0  0  0  0  0  0
    0.3320   -0.0780    1.5221 P   0  0  0  0  0  0  0  0  0  0  0  0
    1.3697    0.6836    0.5678 N   0  0  0  0  0  0  0  0  0  0  0  0
    1.0996    0.4808   -0.9997 P   0  0  0  0  0  0  0  0  0  0  0  0
   -0.4325    0.7318   -1.3956 N   0  0  0  0  0  0  0  0  0  0  0  0
    1.5853   -0.9889   -1.4673 O   0  0  0  0  0  0  0  0  0  0  0  0
    1.4149   -1.3281   -2.8347 C   0  0  0  0  0  0  0  0  0  0  0  0
    1.9322   -2.7413   -3.0602 C   0  0  0  0  0  0  0  0  0  0  0  0
    1.7864   -3.1811   -4.4984 C   0  0  0  0  0  0  0  0  0  0  0  0
    2.4786   -2.3598   -5.3182 F   0  0  0  0  0  0  0  0  0  0  0  0
    2.2570   -4.4332   -4.6799 F   0  0  0  0  0  0  0  0  0  0  0  0
    0.4950   -3.1590   -4.8908 F   0  0  0  0  0  0  0  0  0  0  0  0
    2.0664    1.4603   -1.8488 O   0  0  0  0  0  0  0  0  0  0  0  0
    1.9405    2.8559   -1.6249 C   0  0  0  0  0  0  0  0  0  0  0  0
    2.9321    3.5896   -2.5160 C   0  0  0  0  0  0  0  0  0  0  0  0
    2.8616    5.0884   -2.3372 C   0  0  0  0  0  0  0  0  0  0  0  0
    3.1371    5.4271   -1.0585 F   0  0  0  0  0  0  0  0  0  0  0  0
    3.7527    5.7206   -3.1299 F   0  0  0  0  0  0  0  0  0  0  0  0
    1.6318    5.5613   -2.6308 F   0  0  0  0  0  0  0  0  0  0  0  0
    0.6460   -1.6634    1.5705 O   0  0  0  0  0  0  0  0  0  0  0  0
    1.9606   -2.0578    1.9315 C   0  0  0  0  0  0  0  0  0  0  0  0
    2.0412   -3.5773    1.9157 C   0  0  0  0  0  0  0  0  0  0  0  0
    3.4156   -4.0810    2.2907 C   0  0  0  0  0  0  0  0  0  0  0  0
    3.7487   -3.6696    3.5339 F   0  0  0  0  0  0  0  0  0  0  0  0
    3.4652   -5.4299    2.2782 F   0  0  0  0  0  0  0  0  0  0  0  0
    4.3571   -3.6202    1.4403 F   0  0  0  0  0  0  0  0  0  0  0  0
    0.5494    0.3730    3.0598 O   0  0  0  0  0  0  0  0  0  0  0  0
    0.2895    1.7297    3.3849 C   0  0  0  0  0  0  0  0  0  0  0  0
    0.5537    1.9403    4.8686 C   0  0  0  0  0  0  0  0  0  0  0  0
    0.2991    3.3665    5.2980 C   0  0  0  0  0  0  0  0  0  0  0  0
   -0.9859    3.7110    5.0616 F   0  0  0  0  0  0  0  0  0  0  0  0
    0.5317    3.5318    6.6174 F   0  0  0  0  0  0  0  0  0  0  0  0
    1.0862    4.2312    4.6234 F   0  0  0  0  0  0  0  0  0  0  0  0
   -2.9912    0.4624   -0.8066 O   0  0  0  0  0  0  0  0  0  0  0  0
   -3.2937    1.8314   -0.5874 C   0  0  0  0  0  0  0  0  0  0  0  0
   -4.7449    2.0830   -0.9701 C   0  0  0  0  0  0  0  0  0  0  0  0
   -5.1488    3.5245   -0.7652 C   0  0  0  0  0  0  0  0  0  0  0  0
   -4.3825    4.3436   -1.5185 F   0  0  0  0  0  0  0  0  0  0  0  0
   -6.4359    3.7293   -1.1166 F   0  0  0  0  0  0  0  0  0  0  0  0
   -5.0032    3.8975    0.5239 F   0  0  0  0  0  0  0  0  0  0  0  0
   -3.2556   -4.7815    0.1466 C   0  0  0  0  0  0  0  0  0  0  0  0
   -4.5410   -4.3918   -0.0003 F   0  0  0  0  0  0  0  0  0  0  0  0
   -3.1548   -6.0454   -0.3167 F   0  0  0  0  0  0  0  0  0  0  0  0
   -2.9805   -4.7977    1.4681 F   0  0  0  0  0  0  0  0  0  0  0  0
   -2.5555   -3.8765   -1.6696 H   0  0  0  0  0  0  0  0  0  0  0  0
   -1.2943   -4.1950   -0.4994 H   0  0  0  0  0  0  0  0  0  0  0  0
   -3.4489   -2.0268   -0.2279 H   0  0  0  0  0  0  0  0  0  0  0  0
   -2.1644   -2.3510    0.9642 H   0  0  0  0  0  0  0  0  0  0  0  0
    1.9693   -0.6075   -3.4452 H   0  0  0  0  0  0  0  0  0  0  0  0
    0.3503   -1.2579   -3.0821 H   0  0  0  0  0  0  0  0  0  0  0  0
    2.9853   -2.7974   -2.7597 H   0  0  0  0  0  0  0  0  0  0  0  0
    1.3960   -3.4363   -2.4030 H   0  0  0  0  0  0  0  0  0  0  0  0
    2.1409    3.0597   -0.5677 H   0  0  0  0  0  0  0  0  0  0  0  0
    0.9126    3.1555   -1.8554 H   0  0  0  0  0  0  0  0  0  0  0  0
    3.9478    3.2372   -2.3002 H   0  0  0  0  0  0  0  0  0  0  0  0
    2.7422    3.3313   -3.5646 H   0  0  0  0  0  0  0  0  0  0  0  0
    2.1813   -1.6656    2.9298 H   0  0  0  0  0  0  0  0  0  0  0  0
    2.6652   -1.6219    1.2152 H   0  0  0  0  0  0  0  0  0  0  0  0
    1.2938   -3.9902    2.6037 H   0  0  0  0  0  0  0  0  0  0  0  0
    1.7687   -3.9477    0.9202 H   0  0  0  0  0  0  0  0  0  0  0  0
   -0.7536    1.9544    3.1385 H   0  0  0  0  0  0  0  0  0  0  0  0
    0.9425    2.3658    2.7779 H   0  0  0  0  0  0  0  0  0  0  0  0
   -0.0761    1.2587    5.4525 H   0  0  0  0  0  0  0  0  0  0  0  0
    1.5892    1.6624    5.0989 H   0  0  0  0  0  0  0  0  0  0  0  0
   -2.6181    2.4406   -1.1972 H   0  0  0  0  0  0  0  0  0  0  0  0
   -3.1231    2.0621    0.4695 H   0  0  0  0  0  0  0  0  0  0  0  0
   -4.9013    1.7989   -2.0176 H   0  0  0  0  0  0  0  0  0  0  0  0
   -5.3974    1.4272   -0.3815 H   0  0  0  0  0  0  0  0  0  0  0  0
  1  2  1  0  0  0  0
  2  3  1  0  0  0  0
  3  4  1  0  0  0  0
  4  9  1  0  0  0  0
  4  5  2  0  0  0  0
  5  6  1  0  0  0  0
  6  7  2  0  0  0  0
  7  8  1  0  0  0  0
  8  9  2  0  0  0  0
  8 10  1  0  0  0  0
 10 11  1  0  0  0  0
 11 12  1  0  0  0  0
 12 13  1  0  0  0  0
 13 14  1  0  0  0  0
 13 15  1  0  0  0  0
 13 16  1  0  0  0  0
  8 17  1  0  0  0  0
 17 18  1  0  0  0  0
 18 19  1  0  0  0  0
 19 20  1  0  0  0  0
 20 21  1  0  0  0  0
 20 22  1  0  0  0  0
 20 23  1  0  0  0  0
  6 24  1  0  0  0  0
 24 25  1  0  0  0  0
 25 26  1  0  0  0  0
 26 27  1  0  0  0  0
 27 28  1  0  0  0  0
 27 29  1  0  0  0  0
 27 30  1  0  0  0  0
  6 31  1  0  0  0  0
 31 32  1  0  0  0  0
 32 33  1  0  0  0  0
 33 34  1  0  0  0  0
 34 35  1  0  0  0  0
 34 36  1  0  0  0  0
 34 37  1  0  0  0  0
  4 38  1  0  0  0  0
 38 39  1  0  0  0  0
 39 40  1  0  0  0  0
 40 41  1  0  0  0  0
 41 42  1  0  0  0  0
 41 43  1  0  0  0  0
 41 44  1  0  0  0  0
  1 45  1  0  0  0  0
 45 46  1  0  0  0  0
 45 47  1  0  0  0  0
 45 48  1  0  0  0  0
  1 49  1  0  0  0  0
  1 50  1  0  0  0  0
  2 51  1  0  0  0  0
  2 52  1  0  0  0  0
 11 53  1  0  0  0  0
 11 54  1  0  0  0  0
 12 55  1  0  0  0  0
 12 56  1  0  0  0  0
 18 57  1  0  0  0  0
 18 58  1  0  0  0  0
 19 59  1  0  0  0  0
 19 60  1  0  0  0  0
 25 61  1  0  0  0  0
 25 62  1  0  0  0  0
 26 63  1  0  0  0  0
 26 64  1  0  0  0  0
 32 65  1  0  0  0  0
 32 66  1  0  0  0  0
 33 67  1  0  0  0  0
 33 68  1  0  0  0  0
 39 69  1  0  0  0  0
 39 70  1  0  0  0  0
 40 71  1  0  0  0  0
 40 72  1  0  0  0  0
M  END
$$$$
