
     RDKit          3D

 46 45  0  0  0  0  0  0  0  0999 V2000
    0.3304   -3.1891   -0.0011 C   0  0  0  0  0  0  0  0  0  0  0  0
    0.1741   -4.6801   -0.0964 C   0  0  0  0  0  0  0  0  0  0  0  0
    1.2672   -2.5771   -0.5521 O   0  0  0  0  0  0  0  0  0  0  0  0
   -0.9097   -4.8221   -0.3619 H   0  0  0  0  0  0  0  0  0  0  0  0
    0.3001   -5.0996    0.9179 H   0  0  0  0  0  0  0  0  0  0  0  0
    0.8050   -5.1289   -0.8713 H   0  0  0  0  0  0  0  0  0  0  0  0
    0.1336   -0.1285    0.2580 C   0  0  1  0  0  0  0  0  0  0  0  0
    1.4706   -0.2969    0.4981 O   0  0  0  0  0  0  0  0  0  0  0  0
    2.3559    0.7366   -0.5599 P   0  0  2  0  0  5  0  0  0  0  0  0
    1.4404    1.3216   -1.6193 O   0  0  0  0  0  0  0  0  0  0  0  0
    3.5581   -0.0903   -1.3039 O   0  0  0  0  0  0  0  0  0  0  0  0
    4.8210    0.0033   -0.8250 C   0  0  0  0  0  0  0  0  0  0  0  0
    5.4547    1.2719   -0.7892 N   0  0  0  0  0  0  0  0  0  0  0  0
    6.8337    1.1928   -0.3195 C   0  0  0  0  0  0  0  0  0  0  0  0
    7.4169    2.4351   -0.2557 O   0  0  0  0  0  0  0  0  0  0  0  0
    2.9095    1.9785    0.4905 O   0  0  0  0  0  1  0  0  0  0  0  0
   -0.7328   -1.0893    0.9908 C   0  0  2  0  0  0  0  0  0  0  0  0
   -0.1291    1.2859    0.9765 C   0  0  0  0  0  0  0  0  0  0  0  0
   -0.1316    0.0777   -0.7485 H   0  0  0  0  0  0  0  0  0  0  0  0
   -0.6635   -2.4723    0.7661 N   0  0  0  0  0  0  0  0  0  0  0  0
   -2.1195   -0.6056    1.2094 C   0  0  0  0  0  0  0  0  0  0  0  0
   -0.2330   -1.0071    2.0751 H   0  0  0  0  0  0  0  0  0  0  0  0
    0.0941    1.0204    2.0208 H   0  0  0  0  0  0  0  0  0  0  0  0
    0.4747    2.0365    0.5326 H   0  0  0  0  0  0  0  0  0  0  0  0
   -1.2269    1.3969    0.8838 H   0  0  0  0  0  0  0  0  0  0  0  0
   -1.4060   -3.1368    1.2072 H   0  0  0  0  0  0  0  0  0  0  0  0
   -2.4522   -0.1233    2.3086 O   0  0  0  0  0  0  0  0  0  0  0  0
    4.8640   -0.4320    0.2332 H   0  0  0  0  0  0  0  0  0  0  0  0
    5.4822   -0.7262   -1.3981 H   0  0  0  0  0  0  0  0  0  0  0  0
    4.9861    1.9578   -0.1668 H   0  0  0  0  0  0  0  0  0  0  0  0
    7.3873    0.6244   -1.1562 H   0  0  0  0  0  0  0  0  0  0  0  0
    6.9138    0.5503    0.5556 H   0  0  0  0  0  0  0  0  0  0  0  0
    7.0636    2.9092    0.5212 H   0  0  0  0  0  0  0  0  0  0  0  0
   -3.0415   -0.7172    0.1714 N   0  0  0  0  0  0  0  0  0  0  0  0
   -4.4044   -0.3150    0.1018 C   0  0  0  0  0  0  0  0  0  0  0  0
   -2.6396   -1.2160   -0.7218 H   0  0  0  0  0  0  0  0  0  0  0  0
   -4.6428    1.1657    0.0527 C   0  0  0  0  0  0  0  0  0  0  0  0
   -4.9443   -0.6883    1.0864 H   0  0  0  0  0  0  0  0  0  0  0  0
   -4.9708   -0.8216   -0.6749 H   0  0  0  0  0  0  0  0  0  0  0  0
   -3.7263    1.9719    0.1167 O   0  0  0  0  0  0  0  0  0  0  0  0
   -5.9810    1.5745   -0.0860 N   0  0  0  0  0  0  0  0  0  0  0  0
   -6.2972    2.9715   -0.1969 C   0  0  0  0  0  0  0  0  0  0  0  0
   -6.7606    0.8731   -0.1164 H   0  0  0  0  0  0  0  0  0  0  0  0
   -5.5368    3.5799    0.3512 H   0  0  0  0  0  0  0  0  0  0  0  0
   -6.2938    3.2727   -1.2837 H   0  0  0  0  0  0  0  0  0  0  0  0
   -7.2938    3.1548    0.2649 H   0  0  0  0  0  0  0  0  0  0  0  0
  1  2  1  0
  1  3  2  0
  1 20  1  0
  2  4  1  0
  2  5  1  0
  2  6  1  0
  7  8  1  0
  7 17  1  0
  7 18  1  0
  7 19  1  6
  8  9  1  0
  9 10  2  0
  9 11  1  0
  9 16  1  1
 11 12  1  0
 12 13  1  0
 12 28  1  0
 12 29  1  0
 13 14  1  0
 13 30  1  0
 14 15  1  0
 14 31  1  0
 14 32  1  0
 15 33  1  0
 17 20  1  0
 17 21  1  0
 17 22  1  1
 18 23  1  0
 18 24  1  0
 18 25  1  0
 20 26  1  0
 21 27  2  0
 21 34  1  0
 34 35  1  0
 34 36  1  0
 35 37  1  0
 35 38  1  0
 35 39  1  0
 37 40  2  0
 37 41  1  0
 41 42  1  0
 41 43  1  0
 42 44  1  0
 42 45  1  0
 42 46  1  0
M  CHG  1  16  -1
M  END
$$$$
