
     RDKit          3D

112111  0  0  0  0  0  0  0  0999 V2000
  -15.0538   -0.4124   -1.6716 C   0  0  0  0  0  0  0  0  0  0  0  0
  -13.5455   -0.5302   -1.5297 C   0  0  0  0  0  0  0  0  0  0  0  0
  -12.9838   -1.6347   -1.6025 O   0  0  0  0  0  0  0  0  0  0  0  0
  -12.8127    0.6650   -1.3232 N   0  0  0  0  0  0  0  0  0  0  0  0
  -11.3835    0.6434   -1.2096 C   0  0  1  0  0  0  0  0  0  0  0  0
  -10.6472    1.7702   -1.8029 C   0  0  0  0  0  0  0  0  0  0  0  0
  -10.9674    0.2458    0.1660 C   0  0  0  0  0  0  0  0  0  0  0  0
  -11.6537   -0.7014    0.6679 O   0  0  0  0  0  0  0  0  0  0  0  0
   -9.9298    0.8309    0.8208 N   0  0  0  0  0  0  0  0  0  0  0  0
   -9.4235    0.3136    2.1693 C   0  0  1  0  0  0  0  0  0  0  0  0
  -10.6411   -0.0455    2.9823 C   0  0  0  0  0  0  0  0  0  0  0  0
   -8.7899   -0.9596    1.6610 C   0  0  0  0  0  0  0  0  0  0  0  0
   -9.2654   -2.0950    1.9677 O   0  0  0  0  0  0  0  0  0  0  0  0
   -7.7080   -0.9378    0.8177 N   0  0  0  0  0  0  0  0  0  0  0  0
   -6.9002   -1.8523    0.1198 C   0  0  1  0  0  0  0  0  0  0  0  0
   -7.5268   -2.2937   -1.1989 C   0  0  0  0  0  0  0  0  0  0  0  0
   -5.5914   -1.2377   -0.1733 C   0  0  0  0  0  0  0  0  0  0  0  0
   -4.9284   -0.8030    0.7647 O   0  0  0  0  0  0  0  0  0  0  0  0
   -5.1371   -1.1411   -1.5105 N   0  0  0  0  0  0  0  0  0  0  0  0
   -3.8401   -0.5167   -1.6658 C   0  0  1  0  0  0  0  0  0  0  0  0
   -3.5863    0.0655   -3.0073 C   0  0  0  0  0  0  0  0  0  0  0  0
   -3.8646    0.6764   -0.6454 C   0  0  0  0  0  0  0  0  0  0  0  0
   -4.8204    1.3920   -0.5541 O   0  0  0  0  0  0  0  0  0  0  0  0
   -2.6920    0.7739    0.0628 N   0  0  0  0  0  0  0  0  0  0  0  0
   -2.2465    1.7353    1.0477 C   0  0  1  0  0  0  0  0  0  0  0  0
   -3.1733    1.6205    2.2944 C   0  0  0  0  0  0  0  0  0  0  0  0
   -0.9751    1.0500    1.5294 C   0  0  0  0  0  0  0  0  0  0  0  0
   -0.8843    0.5885    2.6509 O   0  0  0  0  0  0  0  0  0  0  0  0
    0.0861    0.9309    0.5758 N   0  0  0  0  0  0  0  0  0  0  0  0
    1.2515    0.2084    0.8469 C   0  0  1  0  0  0  0  0  0  0  0  0
    0.9358   -1.2756    1.1369 C   0  0  0  0  0  0  0  0  0  0  0  0
    2.3800    0.3335   -0.0473 C   0  0  0  0  0  0  0  0  0  0  0  0
    2.8742    1.4556   -0.3226 O   0  0  0  0  0  0  0  0  0  0  0  0
    2.9930   -0.8116   -0.6561 N   0  0  0  0  0  0  0  0  0  0  0  0
    4.2517   -0.5659   -1.4617 C   0  0  1  0  0  0  0  0  0  0  0  0
    4.0709    0.4056   -2.5275 C   0  0  0  0  0  0  0  0  0  0  0  0
    5.1342   -0.2768   -0.3104 C   0  0  0  0  0  0  0  0  0  0  0  0
    4.8071   -1.0360    0.7112 O   0  0  0  0  0  0  0  0  0  0  0  0
    6.1673    0.5807   -0.0646 N   0  0  0  0  0  0  0  0  0  0  0  0
    6.7704    0.6439    1.2663 C   0  0  1  0  0  0  0  0  0  0  0  0
    6.0103   -0.1680    2.3104 C   0  0  0  0  0  0  0  0  0  0  0  0
    8.1562    0.2646    1.3195 C   0  0  0  0  0  0  0  0  0  0  0  0
    8.8156    0.0739    0.2611 O   0  0  0  0  0  0  0  0  0  0  0  0
    8.8269    0.0891    2.5760 N   0  0  0  0  0  0  0  0  0  0  0  0
   10.2368   -0.2761    2.5599 C   0  0  1  0  0  0  0  0  0  0  0  0
   10.4575   -1.7227    2.6642 C   0  0  0  0  0  0  0  0  0  0  0  0
   10.9120    0.3965    1.4221 C   0  0  0  0  0  0  0  0  0  0  0  0
   10.5291    1.6073    1.1367 O   0  0  0  0  0  0  0  0  0  0  0  0
   11.9198   -0.0983    0.5955 N   0  0  0  0  0  0  0  0  0  0  0  0
   12.5123    0.6450   -0.4923 C   0  0  1  0  0  0  0  0  0  0  0  0
   13.6654    1.5071    0.0068 C   0  0  0  0  0  0  0  0  0  0  0  0
   12.9713   -0.2724   -1.5258 C   0  0  0  0  0  0  0  0  0  0  0  0
   12.7125   -1.5037   -1.4497 O   0  0  0  0  0  0  0  0  0  0  0  0
   13.7310    0.1468   -2.6632 N   0  0  0  0  0  0  0  0  0  0  0  0
   14.1878   -0.7722   -3.6884 C   0  0  0  0  0  0  0  0  0  0  0  0
  -15.4410   -1.4456   -1.6876 H   0  0  0  0  0  0  0  0  0  0  0  0
  -15.4743    0.1193   -0.8215 H   0  0  0  0  0  0  0  0  0  0  0  0
  -15.2785    0.0799   -2.6556 H   0  0  0  0  0  0  0  0  0  0  0  0
  -13.3254    1.5747   -1.2569 H   0  0  0  0  0  0  0  0  0  0  0  0
  -11.0886   -0.3074   -1.8380 H   0  0  0  0  0  0  0  0  0  0  0  0
  -10.3548    1.4812   -2.8642 H   0  0  0  0  0  0  0  0  0  0  0  0
  -11.2772    2.6788   -1.9123 H   0  0  0  0  0  0  0  0  0  0  0  0
   -9.7285    2.0769   -1.3028 H   0  0  0  0  0  0  0  0  0  0  0  0
   -9.3676    1.6642    0.5261 H   0  0  0  0  0  0  0  0  0  0  0  0
   -8.8027    1.0122    2.6309 H   0  0  0  0  0  0  0  0  0  0  0  0
  -10.8855   -1.1144    2.9719 H   0  0  0  0  0  0  0  0  0  0  0  0
  -10.5411    0.2658    4.0600 H   0  0  0  0  0  0  0  0  0  0  0  0
  -11.5301    0.5695    2.6216 H   0  0  0  0  0  0  0  0  0  0  0  0
   -7.3676    0.1245    0.6326 H   0  0  0  0  0  0  0  0  0  0  0  0
   -6.7682   -2.7708    0.7631 H   0  0  0  0  0  0  0  0  0  0  0  0
   -6.8013   -3.0356   -1.6594 H   0  0  0  0  0  0  0  0  0  0  0  0
   -8.4993   -2.8295   -0.9934 H   0  0  0  0  0  0  0  0  0  0  0  0
   -7.6447   -1.4327   -1.8532 H   0  0  0  0  0  0  0  0  0  0  0  0
   -5.6503   -1.4522   -2.3438 H   0  0  0  0  0  0  0  0  0  0  0  0
   -3.0474   -1.1914   -1.3073 H   0  0  0  0  0  0  0  0  0  0  0  0
   -2.5416   -0.1441   -3.3261 H   0  0  0  0  0  0  0  0  0  0  0  0
   -3.6631    1.2008   -2.9687 H   0  0  0  0  0  0  0  0  0  0  0  0
   -4.3449   -0.2770   -3.7264 H   0  0  0  0  0  0  0  0  0  0  0  0
   -1.9423    0.0182   -0.1323 H   0  0  0  0  0  0  0  0  0  0  0  0
   -2.2059    2.7515    0.7798 H   0  0  0  0  0  0  0  0  0  0  0  0
   -2.8767    0.7847    2.9421 H   0  0  0  0  0  0  0  0  0  0  0  0
   -3.0386    2.5821    2.8570 H   0  0  0  0  0  0  0  0  0  0  0  0
   -4.2152    1.5006    1.9738 H   0  0  0  0  0  0  0  0  0  0  0  0
   -0.0983    1.4532   -0.3361 H   0  0  0  0  0  0  0  0  0  0  0  0
    1.6043    0.5586    1.8894 H   0  0  0  0  0  0  0  0  0  0  0  0
    0.4433   -1.2773    2.1386 H   0  0  0  0  0  0  0  0  0  0  0  0
    1.8772   -1.8354    1.2707 H   0  0  0  0  0  0  0  0  0  0  0  0
    0.2495   -1.6796    0.4091 H   0  0  0  0  0  0  0  0  0  0  0  0
    2.6473   -1.7277   -0.5760 H   0  0  0  0  0  0  0  0  0  0  0  0
    4.5312   -1.5614   -1.8650 H   0  0  0  0  0  0  0  0  0  0  0  0
    2.9763    0.4861   -2.7817 H   0  0  0  0  0  0  0  0  0  0  0  0
    4.5505    1.3809   -2.4691 H   0  0  0  0  0  0  0  0  0  0  0  0
    4.4854   -0.0459   -3.4950 H   0  0  0  0  0  0  0  0  0  0  0  0
    6.5279    1.1914   -0.7992 H   0  0  0  0  0  0  0  0  0  0  0  0
    6.5297    1.7062    1.6108 H   0  0  0  0  0  0  0  0  0  0  0  0
    4.9458    0.1230    2.4098 H   0  0  0  0  0  0  0  0  0  0  0  0
    6.4311    0.2462    3.3010 H   0  0  0  0  0  0  0  0  0  0  0  0
    6.2697   -1.2134    2.3474 H   0  0  0  0  0  0  0  0  0  0  0  0
    8.3477    0.2033    3.4680 H   0  0  0  0  0  0  0  0  0  0  0  0
   10.6723    0.2658    3.4634 H   0  0  0  0  0  0  0  0  0  0  0  0
    9.5412   -2.2987    2.9430 H   0  0  0  0  0  0  0  0  0  0  0  0
   11.1826   -1.9029    3.5099 H   0  0  0  0  0  0  0  0  0  0  0  0
   10.9360   -2.1680    1.7687 H   0  0  0  0  0  0  0  0  0  0  0  0
   12.2701   -1.0546    0.7494 H   0  0  0  0  0  0  0  0  0  0  0  0
   11.7446    1.3741   -0.8430 H   0  0  0  0  0  0  0  0  0  0  0  0
   14.4984    0.9549    0.4247 H   0  0  0  0  0  0  0  0  0  0  0  0
   13.2126    2.2736    0.7082 H   0  0  0  0  0  0  0  0  0  0  0  0
   14.0150    2.1054   -0.8567 H   0  0  0  0  0  0  0  0  0  0  0  0
   13.9611    1.1719   -2.7279 H   0  0  0  0  0  0  0  0  0  0  0  0
   13.9224   -1.7985   -3.3476 H   0  0  0  0  0  0  0  0  0  0  0  0
   15.3025   -0.6768   -3.7861 H   0  0  0  0  0  0  0  0  0  0  0  0
   13.7296   -0.5194   -4.6460 H   0  0  0  0  0  0  0  0  0  0  0  0
  1  2  1  0
  2  3  2  0
  2  4  1  0
  4  5  1  0
  5  6  1  0
  5  7  1  0
  7  8  2  0
  7  9  1  0
  9 10  1  0
 10 11  1  0
 10 12  1  0
 12 13  2  0
 12 14  1  0
 14 15  1  0
 15 16  1  0
 15 17  1  0
 17 18  2  0
 17 19  1  0
 19 20  1  0
 20 21  1  0
 20 22  1  0
 22 23  2  0
 22 24  1  0
 24 25  1  0
 25 26  1  0
 25 27  1  0
 27 28  2  0
 27 29  1  0
 29 30  1  0
 30 31  1  0
 30 32  1  0
 32 33  2  0
 32 34  1  0
 34 35  1  0
 35 36  1  0
 35 37  1  0
 37 38  2  0
 37 39  1  0
 39 40  1  0
 40 41  1  0
 40 42  1  0
 42 43  2  0
 42 44  1  0
 44 45  1  0
 45 46  1  0
 45 47  1  0
 47 48  2  0
 47 49  1  0
 49 50  1  0
 50 51  1  0
 50 52  1  0
 52 53  2  0
 52 54  1  0
 54 55  1  0
  1 56  1  0
  1 57  1  0
  1 58  1  0
  4 59  1  0
  5 60  1  6
  6 61  1  0
  6 62  1  0
  6 63  1  0
  9 64  1  0
 10 65  1  1
 11 66  1  0
 11 67  1  0
 11 68  1  0
 14 69  1  0
 15 70  1  1
 16 71  1  0
 16 72  1  0
 16 73  1  0
 19 74  1  0
 20 75  1  1
 21 76  1  0
 21 77  1  0
 21 78  1  0
 24 79  1  0
 25 80  1  6
 26 81  1  0
 26 82  1  0
 26 83  1  0
 29 84  1  0
 30 85  1  1
 31 86  1  0
 31 87  1  0
 31 88  1  0
 34 89  1  0
 35 90  1  6
 36 91  1  0
 36 92  1  0
 36 93  1  0
 39 94  1  0
 40 95  1  1
 41 96  1  0
 41 97  1  0
 41 98  1  0
 44 99  1  0
 45100  1  1
 46101  1  0
 46102  1  0
 46103  1  0
 49104  1  0
 50105  1  6
 51106  1  0
 51107  1  0
 51108  1  0
 54109  1  0
 55110  1  0
 55111  1  0
 55112  1  0
M  END
$$$$
