
  -OEChem-09152209473D

 32 31  0     1  0  0  0  0  0999 V2000
   25.8980   25.2040   24.4650 H   0  0  0  0  0  0  0  0  0  0  0  0
   25.9650   26.1970   24.0230 C   0  0  0  0  0  0  0  0  0  0  0  0
   25.2760   26.8710   24.5300 H   0  0  0  0  0  0  0  0  0  0  0  0
   25.7210   26.1430   22.9630 H   0  0  0  0  0  0  0  0  0  0  0  0
   27.3760   26.7110   24.1840 C   0  0  0  0  0  0  0  0  0  0  0  0
   28.2190   26.0230   24.7450 O   0  0  0  0  0  0  0  0  0  0  0  0
   27.6270   27.9230   23.6960 N   0  0  0  0  0  0  0  0  0  0  0  0
   26.8700   28.4440   23.2790 H   0  0  0  0  0  0  0  0  0  0  0  0
   28.9190   28.6050   23.7760 C   0  0  1  0  0  0  0  0  0  0  0  0
   29.4140   28.3160   24.7060 H   0  0  0  0  0  0  0  0  0  0  0  0
   29.7950   28.1540   22.5980 C   0  0  0  0  0  0  0  0  0  0  0  0
   29.3210   28.4290   21.6540 H   0  0  0  0  0  0  0  0  0  0  0  0
   30.7740   28.6290   22.6590 H   0  0  0  0  0  0  0  0  0  0  0  0
   29.9280   27.0710   22.6300 H   0  0  0  0  0  0  0  0  0  0  0  0
   28.7370   30.1340   23.7910 C   0  0  0  0  0  0  0  0  0  0  0  0
   27.6960   30.6450   23.3770 O   0  0  0  0  0  0  0  0  0  0  0  0
   29.7570   30.8630   24.2490 N   0  0  0  0  0  0  0  0  0  0  0  0
   30.6040   30.3920   24.5340 H   0  0  0  0  0  0  0  0  0  0  0  0
   29.7820   32.3250   24.3090 C   0  0  1  0  0  0  0  0  0  0  0  0
   29.2140   32.7230   23.4660 H   0  0  0  0  0  0  0  0  0  0  0  0
   29.1080   32.7800   25.6120 C   0  0  0  0  0  0  0  0  0  0  0  0
   29.6580   32.3910   26.4700 H   0  0  0  0  0  0  0  0  0  0  0  0
   29.0910   33.8690   25.6620 H   0  0  0  0  0  0  0  0  0  0  0  0
   28.0820   32.4120   25.6460 H   0  0  0  0  0  0  0  0  0  0  0  0
   31.2240   32.8540   24.2020 C   0  0  0  0  0  0  0  0  0  0  0  0
   32.1780   32.1130   24.4380 O   0  0  0  0  0  0  0  0  0  0  0  0
   31.3790   34.1390   23.8570 N   0  0  0  0  0  0  0  0  0  0  0  0
   30.5500   34.6850   23.6860 H   0  0  0  0  0  0  0  0  0  0  0  0
   32.6770   34.7980   23.7220 C   0  0  0  0  0  0  0  0  0  0  0  0
   33.3320   34.1990   23.0860 H   0  0  0  0  0  0  0  0  0  0  0  0
   32.5560   35.7880   23.2800 H   0  0  0  0  0  0  0  0  0  0  0  0
   33.1440   34.8970   24.7040 H   0  0  0  0  0  0  0  0  0  0  0  0
  1  2  1  0  0  0  0
  2  3  1  0  0  0  0
  2  4  1  0  0  0  0
  2  5  1  0  0  0  0
  5  6  2  0  0  0  0
  5  7  1  0  0  0  0
  7  8  1  0  0  0  0
  7  9  1  0  0  0  0
  9 10  1  0  0  0  0
  9 11  1  0  0  0  0
  9 15  1  0  0  0  0
 11 12  1  0  0  0  0
 11 13  1  0  0  0  0
 11 14  1  0  0  0  0
 15 16  2  0  0  0  0
 15 17  1  0  0  0  0
 17 18  1  0  0  0  0
 17 19  1  0  0  0  0
 19 20  1  0  0  0  0
 19 21  1  0  0  0  0
 19 25  1  0  0  0  0
 21 22  1  0  0  0  0
 21 23  1  0  0  0  0
 21 24  1  0  0  0  0
 25 26  2  0  0  0  0
 25 27  1  0  0  0  0
 27 28  1  0  0  0  0
 27 29  1  0  0  0  0
 29 30  1  0  0  0  0
 29 31  1  0  0  0  0
 29 32  1  0  0  0  0
M  END
$$$$
