acetate
     RDKit          3D

  7  6  0  0  0  0  0  0  0  0999 V2000
   -0.6718   -0.0300   -0.0124 C   0  0  0  0  0  0  0  0  0  0  0  0
    0.8141   -0.0113    0.0150 C   0  0  0  0  0  0  0  0  0  0  0  0
    1.3637    1.1167    0.1020 O   0  0  0  0  0  0  0  0  0  0  0  0
    1.6027   -1.1287   -0.0478 O   0  0  0  0  0  0  0  0  0  0  0  0
   -0.9699    0.7955   -0.7161 H   0  0  0  0  0  0  0  0  0  0  0  0
   -1.0545    0.2619    0.9880 H   0  0  0  0  0  0  0  0  0  0  0  0
   -1.0842   -1.0041   -0.3287 H   0  0  0  0  0  0  0  0  0  0  0  0
  1  2  1  0
  2  3  2  0
  2  4  1  0
  1  5  1  0
  1  6  1  0
  1  7  1  0
M  CHG  1   4  -1
M  END
$$$$
