adamantane
     RDKit          3D

 26 28  0  0  0  0  0  0  0  0999 V2000
   -0.5875    0.6572    1.4800 C   0  0  0  0  0  0  0  0  0  0  0  0
   -1.2723    0.8585    0.1247 C   0  0  0  0  0  0  0  0  0  0  0  0
   -0.2812    1.5606   -0.7581 C   0  0  0  0  0  0  0  0  0  0  0  0
    0.9610    0.7124   -0.9099 C   0  0  0  0  0  0  0  0  0  0  0  0
    1.5966    0.4711    0.4242 C   0  0  0  0  0  0  0  0  0  0  0  0
    0.5949   -0.2517    1.3269 C   0  0  0  0  0  0  0  0  0  0  0  0
    0.2796   -1.5654    0.6908 C   0  0  0  0  0  0  0  0  0  0  0  0
   -0.4100   -1.3250   -0.6577 C   0  0  0  0  0  0  0  0  0  0  0  0
   -1.6416   -0.5148   -0.3685 C   0  0  0  0  0  0  0  0  0  0  0  0
    0.5856   -0.6063   -1.5264 C   0  0  0  0  0  0  0  0  0  0  0  0
   -0.1887    1.6543    1.8038 H   0  0  0  0  0  0  0  0  0  0  0  0
   -1.3245    0.3272    2.2203 H   0  0  0  0  0  0  0  0  0  0  0  0
   -2.1817    1.4554    0.2306 H   0  0  0  0  0  0  0  0  0  0  0  0
   -0.6949    1.8493   -1.7380 H   0  0  0  0  0  0  0  0  0  0  0  0
    0.0347    2.4846   -0.2217 H   0  0  0  0  0  0  0  0  0  0  0  0
    1.6820    1.2592   -1.5365 H   0  0  0  0  0  0  0  0  0  0  0  0
    1.8908    1.4474    0.8758 H   0  0  0  0  0  0  0  0  0  0  0  0
    2.4751   -0.1710    0.3374 H   0  0  0  0  0  0  0  0  0  0  0  0
    1.0097   -0.4373    2.3308 H   0  0  0  0  0  0  0  0  0  0  0  0
    1.2557   -2.0488    0.4280 H   0  0  0  0  0  0  0  0  0  0  0  0
   -0.3658   -2.2193    1.2816 H   0  0  0  0  0  0  0  0  0  0  0  0
   -0.6673   -2.3090   -1.0534 H   0  0  0  0  0  0  0  0  0  0  0  0
   -2.1547   -1.0256    0.4994 H   0  0  0  0  0  0  0  0  0  0  0  0
   -2.3802   -0.5133   -1.1810 H   0  0  0  0  0  0  0  0  0  0  0  0
    1.5174   -1.2337   -1.5234 H   0  0  0  0  0  0  0  0  0  0  0  0
    0.2672   -0.5161   -2.5798 H   0  0  0  0  0  0  0  0  0  0  0  0
  1  2  1  0
  2  3  1  0
  3  4  1  0
  4  5  1  0
  5  6  1  0
  6  7  1  0
  7  8  1  0
  8  9  1  0
  8 10  1  0
  6  1  1  0
  9  2  1  0
 10  4  1  0
  1 11  1  0
  1 12  1  0
  2 13  1  0
  3 14  1  0
  3 15  1  0
  4 16  1  0
  5 17  1  0
  5 18  1  0
  6 19  1  0
  7 20  1  0
  7 21  1  0
  8 22  1  0
  9 23  1  0
  9 24  1  0
 10 25  1  0
 10 26  1  0
M  END
$$$$
