benzene
     RDKit          3D

 12 12  0  0  0  0  0  0  0  0999 V2000
   -1.1980    0.6518   -0.1262 C   0  0  0  0  0  0  0  0  0  0  0  0
   -1.1736   -0.7195    0.0228 C   0  0  0  0  0  0  0  0  0  0  0  0
    0.0334   -1.3613    0.1484 C   0  0  0  0  0  0  0  0  0  0  0  0
    1.2134   -0.6392    0.1256 C   0  0  0  0  0  0  0  0  0  0  0  0
    1.1637    0.7219   -0.0235 C   0  0  0  0  0  0  0  0  0  0  0  0
   -0.0222    1.3999   -0.1520 C   0  0  0  0  0  0  0  0  0  0  0  0
   -2.1759    1.1115   -0.2214 H   0  0  0  0  0  0  0  0  0  0  0  0
   -2.1191   -1.2744    0.0385 H   0  0  0  0  0  0  0  0  0  0  0  0
    0.0499   -2.4307    0.2644 H   0  0  0  0  0  0  0  0  0  0  0  0
    2.1520   -1.1673    0.2263 H   0  0  0  0  0  0  0  0  0  0  0  0
    2.1286    1.2398   -0.0344 H   0  0  0  0  0  0  0  0  0  0  0  0
   -0.0521    2.4675   -0.2685 H   0  0  0  0  0  0  0  0  0  0  0  0
  1  2  2  0
  2  3  1  0
  3  4  2  0
  4  5  1  0
  5  6  2  0
  6  1  1  0
  1  7  1  0
  2  8  1  0
  3  9  1  0
  4 10  1  0
  5 11  1  0
  6 12  1  0
M  END
$$$$
