
  -OEChem-02042019153D

  5  4  0     0  0  0  0  0  0999 V2000
    0.9999    1.0000    1.0000 C   0  0  0  0  0  0  0  0  0  0  0  0
    0.9433    2.0874    0.9141 H   0  0  0  0  0  0  0  0  0  0  0  0
    1.6195    0.6029    0.1928 H   0  0  0  0  0  0  0  0  0  0  0  0
   -0.0043    0.5764    0.9304 H   0  0  0  0  0  0  0  0  0  0  0  0
    1.4416    0.7334    1.9627 H   0  0  0  0  0  0  0  0  0  0  0  0
  1  2  1  0  0  0  0
  1  3  1  0  0  0  0
  1  4  1  0  0  0  0
  1  5  1  0  0  0  0
M  END

$$$$

  -OEChem-02042019153D

  5  4  0     0  0  0  0  0  0999 V2000
    2.2299    2.2300    4.2300 C   0  0  0  0  0  0  0  0  0  0  0  0
    2.1733    3.3174    4.1441 H   0  0  0  0  0  0  0  0  0  0  0  0
    2.8495    1.8329    3.4228 H   0  0  0  0  0  0  0  0  0  0  0  0
    1.2257    1.8064    4.1604 H   0  0  0  0  0  0  0  0  0  0  0  0
    2.6716    1.9634    5.1927 H   0  0  0  0  0  0  0  0  0  0  0  0
  1  2  1  0  0  0  0
  1  3  1  0  0  0  0
  1  4  1  0  0  0  0
  1  5  1  0  0  0  0
M  END

$$$$
